/*--------------------------------*- C++ -*----------------------------------*\
  =========                 |
  \\      /  F ield         | OpenFOAM: The Open Source CFD Toolbox
   \\    /   O peration     | Website:  https://openfoam.org
    \\  /    A nd           | Version:  dev
     \\/     M anipulation  |
\*---------------------------------------------------------------------------*/
FoamFile
{
    version     2.0;
    format      ascii;
    class       dictionary;
    object      blockMeshDict;
}
// * * * * * * * * * * * * * * * * * * * * * * * * * * * * * * * * * * * * * //
#inputSyntax slash;

backgroundMesh
{
    xMin   -1.1; //
    xMax   3.1;
    yMin   0; //
    yMax   1.4;
    zMin   -1.5;
    zMax   1.5;
    xCells 105;
    yCells 35;
    zCells 75;
}

convertToMeters 1;

vertices
(
    ($!backgroundMesh/xMin $!backgroundMesh/yMin $!backgroundMesh/zMin)
    ($!backgroundMesh/xMax $!backgroundMesh/yMin $!backgroundMesh/zMin)
    ($!backgroundMesh/xMax $!backgroundMesh/yMax $!backgroundMesh/zMin)
    ($!backgroundMesh/xMin $!backgroundMesh/yMax $!backgroundMesh/zMin)

    ($!backgroundMesh/xMin $!backgroundMesh/yMin $!backgroundMesh/zMax)
    ($!backgroundMesh/xMax $!backgroundMesh/yMin $!backgroundMesh/zMax)
    ($!backgroundMesh/xMax $!backgroundMesh/yMax $!backgroundMesh/zMax)
    ($!backgroundMesh/xMin $!backgroundMesh/yMax $!backgroundMesh/zMax)
);

blocks
(
    hex (0 1 2 3 4 5 6 7)
    (
        $!backgroundMesh/xCells
        $!backgroundMesh/yCells
        $!backgroundMesh/zCells
    )
    simpleGrading (1 1 1)
);

boundary
(
    inlet
    {
        type patch;
        faces
        (
            (0 3 7 4)
        );
    }

    outlet
    {
        type patch;
        faces
        (
            (1 5 6 2)
        );
    }

    ground
    {
        type wall;
        faces
        (
            (0 1 5 4)
        );
    }

    boundaryright
    {
        type symmetry;
        faces
        (
            (4 7 6 5)
        );
    }

     boundaryleft
    {
        type symmetry;
        faces
        (
            (0 1 2 3)
        );
    }

     boundarytop
    {
        type symmetry;
        faces
        (
            (3 2 6 7)
        );
    }
);

// ************************************************************************* //
