/*--------------------------------*- C++ -*----------------------------------*\
| =========                 |                                                 |
| \\      /  F ield         | OpenFOAM: The Open Source CFD Toolbox           |
|  \\    /   O peration     | Version:  plus                                  |
|   \\  /    A nd           | Web:      www.OpenFOAM.com                      |
|    \\/     M anipulation  |                                                 |
\*---------------------------------------------------------------------------*/
FoamFile
{
    version     2.0;
    format      ascii;
    class       dictionary;
    location    "system";
    object      fvSolution;
}
// * * * * * * * * * * * * * * * * * * * * * * * * * * * * * * * * * * * * * //

solvers
{
    p
    {
        solver          GAMG;
        tolerance       1e-7;
        relTol          0.1;
	    smoother	GaussSeidel;
	    nPreSweeps	0;
	    nPostSweeps	2;
	    cacheAgglomeration on;
	    agglomerator	faceAreaPair;
	    nCellsInCoarsestLevel	10;
	    mergeLevels	1;
	
    }


    "(U|k|omega|epsilon)"
    {
        solver          smoothSolver;
        smoother        GaussSeidel;
        tolerance       1e-08;
        relTol          0.1;
	    nSweeps		    1;
    }

}

SIMPLE
{
    
    nNonOrthogonalCorrectors 3;

}

relaxationFactors
{
    U               0.5;
	p               0.3;
	k		        0.5;
	omega		    0.5;
	epsilon		    0.5;
       
   
}


// ************************************************************************* //
